  Page 1                                    Sat Mar 26 18:23:55 2022

  ******************************************************************
  *                           E P A N E T                          *
  *                   Hydraulic and Water Quality                  *
  *                   Analysis for Pipe Networks                   *
  *                         Version 2.00.12                        *
  ******************************************************************
  
  Analysis begun Sat Mar 26 18:23:55 2022

   
  Hydraulic Status:
  -----------------------------------------------------------------------
     0:00:00: Balanced after 4 trials
     0:00:00: Reservoir N9 is emptying
   
   
  Hydraulic Status:
  -----------------------------------------------------------------------
     0:00:00: Balanced after 1 trials
     0:00:00: Reservoir N9 is emptying
   
   
  Hydraulic Status:
  -----------------------------------------------------------------------
     0:00:00: Balanced after 1 trials
     0:00:00: Reservoir N9 is emptying
   
   
  Hydraulic Status:
  -----------------------------------------------------------------------
     0:00:00: Balanced after 1 trials
     0:00:00: Reservoir N9 is emptying
   
   
  Hydraulic Status:
  -----------------------------------------------------------------------
     0:00:00: Balanced after 1 trials
     0:00:00: Reservoir N9 is emptying
   
   
  Hydraulic Status:
  -----------------------------------------------------------------------
     0:00:00: Balanced after 1 trials
     0:00:00: Reservoir N9 is emptying
   
   
  Hydraulic Status:
  -----------------------------------------------------------------------
     0:00:00: Balanced after 1 trials
     0:00:00: Reservoir N9 is emptying
   
   
  Hydraulic Status:
  -----------------------------------------------------------------------
     0:00:00: Balanced after 2 trials
     0:00:00: Reservoir N9 is emptying
   
   
  Hydraulic Status:
  -----------------------------------------------------------------------
     0:00:00: Balanced after 1 trials
     0:00:00: Reservoir N9 is emptying
   
   
  Hydraulic Status:
  -----------------------------------------------------------------------
     0:00:00: Balanced after 1 trials
     0:00:00: Reservoir N9 is emptying
   
   
  Hydraulic Status:
  -----------------------------------------------------------------------
     0:00:00: Balanced after 1 trials
     0:00:00: Reservoir N9 is emptying
   
   
  Hydraulic Status:
  -----------------------------------------------------------------------
     0:00:00: Balanced after 2 trials
     0:00:00: Reservoir N9 is emptying
   
   
  Hydraulic Status:
  -----------------------------------------------------------------------
     0:00:00: Balanced after 2 trials
     0:00:00: Reservoir N9 is emptying
   
   
  Hydraulic Status:
  -----------------------------------------------------------------------
     0:00:00: Balanced after 1 trials
     0:00:00: Reservoir N9 is emptying
   
   
  Hydraulic Status:
  -----------------------------------------------------------------------
     0:00:00: Balanced after 1 trials
     0:00:00: Reservoir N9 is emptying
   
   
  Hydraulic Status:
  -----------------------------------------------------------------------
     0:00:00: Balanced after 2 trials
     0:00:00: Reservoir N9 is emptying
   
   
  Hydraulic Status:
  -----------------------------------------------------------------------
     0:00:00: Balanced after 1 trials
     0:00:00: Reservoir N9 is emptying
   
   
  Hydraulic Status:
  -----------------------------------------------------------------------
     0:00:00: Balanced after 1 trials
     0:00:00: Reservoir N9 is emptying
   
   
  Hydraulic Status:
  -----------------------------------------------------------------------
     0:00:00: Balanced after 1 trials
     0:00:00: Reservoir N9 is emptying
   
   
  Hydraulic Status:
  -----------------------------------------------------------------------
     0:00:00: Balanced after 1 trials
     0:00:00: Reservoir N9 is emptying
   
   
  Hydraulic Status:
  -----------------------------------------------------------------------
     0:00:00: Balanced after 1 trials
     0:00:00: Reservoir N9 is emptying
   
   
  Hydraulic Status:
  -----------------------------------------------------------------------
     0:00:00: Balanced after 1 trials
     0:00:00: Reservoir N9 is emptying
   
   
  Hydraulic Status:
  -----------------------------------------------------------------------
     0:00:00: Balanced after 2 trials
     0:00:00: Reservoir N9 is emptying
   
   
  Hydraulic Status:
  -----------------------------------------------------------------------
     0:00:00: Balanced after 1 trials
     0:00:00: Reservoir N9 is emptying
   
   
  Hydraulic Status:
  -----------------------------------------------------------------------
     0:00:00: Balanced after 1 trials
     0:00:00: Reservoir N9 is emptying
   
   
  Hydraulic Status:
  -----------------------------------------------------------------------
     0:00:00: Balanced after 1 trials
     0:00:00: Reservoir N9 is emptying
   
   
  Hydraulic Status:
  -----------------------------------------------------------------------
     0:00:00: Balanced after 1 trials
     0:00:00: Reservoir N9 is emptying
   
   
  Hydraulic Status:
  -----------------------------------------------------------------------
     0:00:00: Balanced after 1 trials
     0:00:00: Reservoir N9 is emptying
   
   
  Hydraulic Status:
  -----------------------------------------------------------------------
     0:00:00: Balanced after 2 trials
     0:00:00: Reservoir N9 is emptying
   
   
  Hydraulic Status:
  -----------------------------------------------------------------------
     0:00:00: Balanced after 1 trials
     0:00:00: Reservoir N9 is emptying
   
   
  Hydraulic Status:
  -----------------------------------------------------------------------
     0:00:00: Balanced after 1 trials
     0:00:00: Reservoir N9 is emptying
   
   
  Hydraulic Status:
  -----------------------------------------------------------------------
     0:00:00: Balanced after 1 trials
     0:00:00: Reservoir N9 is emptying
   
   
  Hydraulic Status:
  -----------------------------------------------------------------------
     0:00:00: Balanced after 1 trials
     0:00:00: Reservoir N9 is emptying
   
   
  Hydraulic Status:
  -----------------------------------------------------------------------
     0:00:00: Balanced after 1 trials
     0:00:00: Reservoir N9 is emptying
   
   
  Hydraulic Status:
  -----------------------------------------------------------------------
     0:00:00: Balanced after 1 trials
     0:00:00: Reservoir N9 is emptying
   
   
  Hydraulic Status:
  -----------------------------------------------------------------------
     0:00:00: Balanced after 1 trials
     0:00:00: Reservoir N9 is emptying
   
   
  Hydraulic Status:
  -----------------------------------------------------------------------
     0:00:00: Balanced after 1 trials
     0:00:00: Reservoir N9 is emptying
   
   
  Hydraulic Status:
  -----------------------------------------------------------------------
     0:00:00: Balanced after 1 trials
     0:00:00: Reservoir N9 is emptying
   
   
  Hydraulic Status:
  -----------------------------------------------------------------------
     0:00:00: Balanced after 1 trials
     0:00:00: Reservoir N9 is emptying
   
   
  Hydraulic Status:
  -----------------------------------------------------------------------
     0:00:00: Balanced after 1 trials
     0:00:00: Reservoir N9 is emptying
   
   
  Hydraulic Status:
  -----------------------------------------------------------------------
     0:00:00: Balanced after 1 trials
     0:00:00: Reservoir N9 is emptying
   
   
  Hydraulic Status:
  -----------------------------------------------------------------------
     0:00:00: Balanced after 1 trials
     0:00:00: Reservoir N9 is emptying
   
   
  Hydraulic Status:
  -----------------------------------------------------------------------
     0:00:00: Balanced after 1 trials
     0:00:00: Reservoir N9 is emptying
   
   
  Hydraulic Status:
  -----------------------------------------------------------------------
     0:00:00: Balanced after 1 trials
     0:00:00: Reservoir N9 is emptying
   
   
  Hydraulic Status:
  -----------------------------------------------------------------------
     0:00:00: Balanced after 1 trials
     0:00:00: Reservoir N9 is emptying
   
   
  Hydraulic Status:
  -----------------------------------------------------------------------
     0:00:00: Balanced after 1 trials
     0:00:00: Reservoir N9 is emptying
   
   
  Hydraulic Status:
  -----------------------------------------------------------------------
     0:00:00: Balanced after 1 trials
     0:00:00: Reservoir N9 is emptying
   
   
  Hydraulic Status:
  -----------------------------------------------------------------------
     0:00:00: Balanced after 1 trials
     0:00:00: Reservoir N9 is emptying
   
   
  Hydraulic Status:
  -----------------------------------------------------------------------
     0:00:00: Balanced after 1 trials
     0:00:00: Reservoir N9 is emptying
   
   
  Hydraulic Status:
  -----------------------------------------------------------------------
     0:00:00: Balanced after 1 trials
     0:00:00: Reservoir N9 is emptying
   
   
  Hydraulic Status:
  -----------------------------------------------------------------------
     0:00:00: Balanced after 1 trials
     0:00:00: Reservoir N9 is emptying
   
   
  Hydraulic Status:
  -----------------------------------------------------------------------
     0:00:00: Balanced after 1 trials
     0:00:00: Reservoir N9 is emptying
   
   
  Hydraulic Status:
  -----------------------------------------------------------------------
     0:00:00: Balanced after 2 trials
     0:00:00: Reservoir N9 is emptying
   
   
  Hydraulic Status:
  -----------------------------------------------------------------------
     0:00:00: Balanced after 1 trials
     0:00:00: Reservoir N9 is emptying
   
   
  Hydraulic Status:
  -----------------------------------------------------------------------
     0:00:00: Balanced after 1 trials
     0:00:00: Reservoir N9 is emptying
   
   
  Hydraulic Status:
  -----------------------------------------------------------------------
     0:00:00: Balanced after 1 trials
     0:00:00: Reservoir N9 is emptying
   
   
  Hydraulic Status:
  -----------------------------------------------------------------------
     0:00:00: Balanced after 1 trials
     0:00:00: Reservoir N9 is emptying
   
   
  Hydraulic Status:
  -----------------------------------------------------------------------
     0:00:00: Balanced after 1 trials
     0:00:00: Reservoir N9 is emptying
   
   
  Hydraulic Status:
  -----------------------------------------------------------------------
     0:00:00: Balanced after 1 trials
     0:00:00: Reservoir N9 is emptying
   
   
  Hydraulic Status:
  -----------------------------------------------------------------------
     0:00:00: Balanced after 2 trials
     0:00:00: Reservoir N9 is emptying
   
   
  Hydraulic Status:
  -----------------------------------------------------------------------
     0:00:00: Balanced after 1 trials
     0:00:00: Reservoir N9 is emptying
   
   
  Hydraulic Status:
  -----------------------------------------------------------------------
     0:00:00: Balanced after 1 trials
     0:00:00: Reservoir N9 is emptying
   
   
  Hydraulic Status:
  -----------------------------------------------------------------------
     0:00:00: Balanced after 1 trials
     0:00:00: Reservoir N9 is emptying
   
   
  Hydraulic Status:
  -----------------------------------------------------------------------
     0:00:00: Balanced after 2 trials
     0:00:00: Reservoir N9 is emptying
   
   
  Hydraulic Status:
  -----------------------------------------------------------------------
     0:00:00: Balanced after 1 trials
     0:00:00: Reservoir N9 is emptying
   
   
  Hydraulic Status:
  -----------------------------------------------------------------------
     0:00:00: Balanced after 1 trials
     0:00:00: Reservoir N9 is emptying
   
   
  Hydraulic Status:
  -----------------------------------------------------------------------
     0:00:00: Balanced after 1 trials
     0:00:00: Reservoir N9 is emptying
   
   
  Hydraulic Status:
  -----------------------------------------------------------------------
     0:00:00: Balanced after 1 trials
     0:00:00: Reservoir N9 is emptying
   
   
  Hydraulic Status:
  -----------------------------------------------------------------------
     0:00:00: Balanced after 1 trials
     0:00:00: Reservoir N9 is emptying
   
   
  Hydraulic Status:
  -----------------------------------------------------------------------
     0:00:00: Balanced after 1 trials
     0:00:00: Reservoir N9 is emptying
   
   
  Hydraulic Status:
  -----------------------------------------------------------------------
     0:00:00: Balanced after 1 trials
     0:00:00: Reservoir N9 is emptying
   
   
  Hydraulic Status:
  -----------------------------------------------------------------------
     0:00:00: Balanced after 1 trials
     0:00:00: Reservoir N9 is emptying
   
   
  Hydraulic Status:
  -----------------------------------------------------------------------
     0:00:00: Balanced after 2 trials
     0:00:00: Reservoir N9 is emptying
   
   
  Hydraulic Status:
  -----------------------------------------------------------------------
     0:00:00: Balanced after 1 trials
     0:00:00: Reservoir N9 is emptying
   
   
  Hydraulic Status:
  -----------------------------------------------------------------------
     0:00:00: Balanced after 1 trials
     0:00:00: Reservoir N9 is emptying
   
   
  Hydraulic Status:
  -----------------------------------------------------------------------
     0:00:00: Balanced after 1 trials
     0:00:00: Reservoir N9 is emptying
   
   
  Hydraulic Status:
  -----------------------------------------------------------------------
     0:00:00: Balanced after 1 trials
     0:00:00: Reservoir N9 is emptying
   
   
  Hydraulic Status:
  -----------------------------------------------------------------------
     0:00:00: Balanced after 1 trials
     0:00:00: Reservoir N9 is emptying
   
   
  Hydraulic Status:
  -----------------------------------------------------------------------
     0:00:00: Balanced after 1 trials
     0:00:00: Reservoir N9 is emptying
   
   
  Hydraulic Status:
  -----------------------------------------------------------------------
     0:00:00: Balanced after 1 trials
     0:00:00: Reservoir N9 is emptying
   
   
  Hydraulic Status:
  -----------------------------------------------------------------------
     0:00:00: Balanced after 1 trials
     0:00:00: Reservoir N9 is emptying
   
   
  Hydraulic Status:
  -----------------------------------------------------------------------
     0:00:00: Balanced after 1 trials
     0:00:00: Reservoir N9 is emptying
   
   
  Hydraulic Status:
  -----------------------------------------------------------------------
     0:00:00: Balanced after 1 trials
     0:00:00: Reservoir N9 is emptying
   
   
  Hydraulic Status:
  -----------------------------------------------------------------------
     0:00:00: Balanced after 1 trials
     0:00:00: Reservoir N9 is emptying
   
   
  Hydraulic Status:
  -----------------------------------------------------------------------
     0:00:00: Balanced after 1 trials
     0:00:00: Reservoir N9 is emptying
   
   
  Hydraulic Status:
  -----------------------------------------------------------------------
     0:00:00: Balanced after 1 trials
     0:00:00: Reservoir N9 is emptying
   
   
  Hydraulic Status:
  -----------------------------------------------------------------------
     0:00:00: Balanced after 1 trials
     0:00:00: Reservoir N9 is emptying
   
   
  Hydraulic Status:
  -----------------------------------------------------------------------
     0:00:00: Balanced after 1 trials
     0:00:00: Reservoir N9 is emptying
   
   
  Hydraulic Status:
  -----------------------------------------------------------------------
     0:00:00: Balanced after 2 trials
     0:00:00: Reservoir N9 is emptying
   
   
  Hydraulic Status:
  -----------------------------------------------------------------------
     0:00:00: Balanced after 1 trials
     0:00:00: Reservoir N9 is emptying
   
   
  Hydraulic Status:
  -----------------------------------------------------------------------
     0:00:00: Balanced after 1 trials
     0:00:00: Reservoir N9 is emptying
   
   
  Hydraulic Status:
  -----------------------------------------------------------------------
     0:00:00: Balanced after 1 trials
     0:00:00: Reservoir N9 is emptying
   
   
  Hydraulic Status:
  -----------------------------------------------------------------------
     0:00:00: Balanced after 1 trials
     0:00:00: Reservoir N9 is emptying
   
   
  Hydraulic Status:
  -----------------------------------------------------------------------
     0:00:00: Balanced after 1 trials
     0:00:00: Reservoir N9 is emptying
   
   
  Hydraulic Status:
  -----------------------------------------------------------------------
     0:00:00: Balanced after 1 trials
     0:00:00: Reservoir N9 is emptying
   
   
  Hydraulic Status:
  -----------------------------------------------------------------------
     0:00:00: Balanced after 2 trials
     0:00:00: Reservoir N9 is emptying
   
   
  Hydraulic Status:
  -----------------------------------------------------------------------
     0:00:00: Balanced after 2 trials
     0:00:00: Reservoir N9 is emptying
   
   
  Hydraulic Status:
  -----------------------------------------------------------------------
     0:00:00: Balanced after 1 trials
     0:00:00: Reservoir N9 is emptying
   
   
  Hydraulic Status:
  -----------------------------------------------------------------------
     0:00:00: Balanced after 1 trials
     0:00:00: Reservoir N9 is emptying
   
   
  Hydraulic Status:
  -----------------------------------------------------------------------
     0:00:00: Balanced after 2 trials
     0:00:00: Reservoir N9 is emptying
   
   
  Hydraulic Status:
  -----------------------------------------------------------------------
     0:00:00: Balanced after 1 trials
     0:00:00: Reservoir N9 is emptying
   
   
  Hydraulic Status:
  -----------------------------------------------------------------------
     0:00:00: Balanced after 1 trials
     0:00:00: Reservoir N9 is emptying
   
   
  Hydraulic Status:
  -----------------------------------------------------------------------
     0:00:00: Balanced after 1 trials
     0:00:00: Reservoir N9 is emptying
   
   
  Hydraulic Status:
  -----------------------------------------------------------------------
     0:00:00: Balanced after 2 trials
     0:00:00: Reservoir N9 is emptying
   
   
  Hydraulic Status:
  -----------------------------------------------------------------------
     0:00:00: Balanced after 1 trials
     0:00:00: Reservoir N9 is emptying
   
   
  Hydraulic Status:
  -----------------------------------------------------------------------
     0:00:00: Balanced after 1 trials
     0:00:00: Reservoir N9 is emptying
   
   
  Hydraulic Status:
  -----------------------------------------------------------------------
     0:00:00: Balanced after 1 trials
     0:00:00: Reservoir N9 is emptying
   
   
  Hydraulic Status:
  -----------------------------------------------------------------------
     0:00:00: Balanced after 1 trials
     0:00:00: Reservoir N9 is emptying
   
   
  Hydraulic Status:
  -----------------------------------------------------------------------
     0:00:00: Balanced after 1 trials
     0:00:00: Reservoir N9 is emptying
   
   
  Hydraulic Status:
  -----------------------------------------------------------------------
     0:00:00: Balanced after 4 trials
     0:00:00: Reservoir N9 is emptying
   
   
  Hydraulic Status:
  -----------------------------------------------------------------------
     0:00:00: Balanced after 2 trials
     0:00:00: Reservoir N9 is emptying
   
   
  Hydraulic Status:
  -----------------------------------------------------------------------
     0:00:00: Balanced after 2 trials
     0:00:00: Reservoir N9 is emptying
   
   
  Hydraulic Status:
  -----------------------------------------------------------------------
     0:00:00: Balanced after 2 trials
     0:00:00: Reservoir N9 is emptying
   
   
  Hydraulic Status:
  -----------------------------------------------------------------------
     0:00:00: Balanced after 2 trials
     0:00:00: Reservoir N9 is emptying
   
   
  Hydraulic Status:
  -----------------------------------------------------------------------
     0:00:00: Balanced after 2 trials
     0:00:00: Reservoir N9 is emptying
   
   
  Hydraulic Status:
  -----------------------------------------------------------------------
     0:00:00: Balanced after 2 trials
     0:00:00: Reservoir N9 is emptying
   
   
  Hydraulic Status:
  -----------------------------------------------------------------------
     0:00:00: Balanced after 2 trials
     0:00:00: Reservoir N9 is emptying
   
   
  Hydraulic Status:
  -----------------------------------------------------------------------
     0:00:00: Balanced after 2 trials
     0:00:00: Reservoir N9 is emptying
   
   
  Hydraulic Status:
  -----------------------------------------------------------------------
     0:00:00: Balanced after 2 trials
     0:00:00: Reservoir N9 is emptying
   
   
  Hydraulic Status:
  -----------------------------------------------------------------------
     0:00:00: Balanced after 2 trials
     0:00:00: Reservoir N9 is emptying
   
   
  Hydraulic Status:
  -----------------------------------------------------------------------
     0:00:00: Balanced after 2 trials
     0:00:00: Reservoir N9 is emptying
   
   
  Hydraulic Status:
  -----------------------------------------------------------------------
     0:00:00: Balanced after 2 trials
     0:00:00: Reservoir N9 is emptying
   
   
  Hydraulic Status:
  -----------------------------------------------------------------------
     0:00:00: Balanced after 1 trials
     0:00:00: Reservoir N9 is emptying
   
   
  Hydraulic Status:
  -----------------------------------------------------------------------
     0:00:00: Balanced after 1 trials
     0:00:00: Reservoir N9 is emptying
   
   
  Hydraulic Status:
  -----------------------------------------------------------------------
     0:00:00: Balanced after 1 trials
     0:00:00: Reservoir N9 is emptying
   
   
  Hydraulic Status:
  -----------------------------------------------------------------------
     0:00:00: Balanced after 1 trials
     0:00:00: Reservoir N9 is emptying
   
   
  Hydraulic Status:
  -----------------------------------------------------------------------
     0:00:00: Balanced after 2 trials
     0:00:00: Reservoir N9 is emptying
   
   
  Hydraulic Status:
  -----------------------------------------------------------------------
     0:00:00: Balanced after 1 trials
     0:00:00: Reservoir N9 is emptying
   
   
  Hydraulic Status:
  -----------------------------------------------------------------------
     0:00:00: Balanced after 1 trials
     0:00:00: Reservoir N9 is emptying
   
   
  Hydraulic Status:
  -----------------------------------------------------------------------
     0:00:00: Balanced after 1 trials
     0:00:00: Reservoir N9 is emptying
   
   
  Hydraulic Status:
  -----------------------------------------------------------------------
     0:00:00: Balanced after 1 trials
     0:00:00: Reservoir N9 is emptying
   
   
  Hydraulic Status:
  -----------------------------------------------------------------------
     0:00:00: Balanced after 1 trials
     0:00:00: Reservoir N9 is emptying
   
   
  Hydraulic Status:
  -----------------------------------------------------------------------
     0:00:00: Balanced after 1 trials
     0:00:00: Reservoir N9 is emptying
   
   
  Hydraulic Status:
  -----------------------------------------------------------------------
     0:00:00: Balanced after 1 trials
     0:00:00: Reservoir N9 is emptying
   
  Analysis ended Sat Mar 26 18:23:57 2022
